! SP B3LYP D4 def2-TZVP TightSCF CHELPG

%maxcore 5000

%pal
nprocs 30
end

* xyz -1 1
  S          -1.44853221739712     -1.01732808403032     -0.29049132149497
  S           1.34022967207696     -0.86175460472022      0.17961975841802
  F          -1.82007710667890      1.60092367346238     -0.64461426060240
  F          -3.30541826209407      0.63980812608893      0.61309770210974
  F          -1.32600619539836      1.05686147174676      1.39550341262314
  F           3.25702523223421      0.94372017619894      0.36128971858656
  F           2.34009527071026      0.86444682822527     -1.60274180226918
  F           1.29075251257461      1.80480090986882      0.04629560449167
  O          -1.65064135056383     -1.87275735283676      0.84864265096478
  O          -2.25234941840548     -1.21464814174666     -1.46737088874125
  O           2.29375052409145     -1.81558462442950     -0.32424201477343
  O           1.13711490778685     -0.76813327165957      1.60174373178120
  N           0.04940880788728     -0.81152334548387     -0.73306631525787
  C          -1.99508343835650      0.66865312460520      0.30539210232145
  C           2.08983106153263      0.78241511471059     -0.28895807815747
*
