40
Coordinates from ORCA-job cluster_2_IONIC_LIQUID0001_final_coord E -2250.588706238806
  S          -0.21784569375700      0.12203725502886      2.94569765380836
  S           2.32703258694343      1.17591417279119      3.64214092040401
  F          -0.80890312844681      0.71535586423685      5.45402660219667
  F          -2.35005862652357     -0.38454675732406      4.39437486774956
  F          -0.56231594075649     -1.40888458713167      5.08029743956728
  F           3.51312768237332     -0.61567309830697      5.18878814147612
  F           3.83217955000107      1.45098389264851      5.77199769253329
  F           1.92594942476307      0.49194397293911      6.16833285985789
  O          -0.58500981704093     -0.97701172365421      2.08942680066260
  O          -0.69612092689044      1.43968215833100      2.60627795539037
  O           1.74859765216537      2.47537147461024      3.86741574427216
  O           3.50356532254515      1.10578604953189      2.80007181792938
  N           1.33300004873301      0.01834327473574      3.22956017445277
  C          -1.03123124754070     -0.26518625702923      4.57776875373440
  C           2.93487774354938      0.58083820924957      5.30100168571513
  N           1.26764151473295      0.58379004965538     -0.09099650316118
  N           0.71434512297997      2.63966506101042      0.29816789466755
  C           2.00317670514294     -0.68543323073090     -0.02186313714592
  C           2.50609500324539     -1.13656189302733     -1.38770362729465
  C           3.30020987228113     -2.44401388521440     -1.31135605409889
  C           1.67390131848088      1.72985945255828      0.44799413026343
  C           0.00552838723573      0.76682478129316     -0.60851577532194
  C          -0.34261726682555      2.05361002020108     -0.36053828650994
  C           2.47146751316590     -3.65414733749442     -0.88098109754724
  C           0.69094380843365      3.93558979416711      0.96989735842545
  H           1.32452371192235     -1.40349082300331      0.43485075664529
  H           2.82483325832181     -0.52920881676673      0.67590624619961
  H           1.65777057866580     -1.26409757738118     -2.06824146428455
  H           3.13535917018042     -0.34835833476929     -1.81107860133045
  H           4.14460989927127     -2.31143209598923     -0.62738668632841
  H           3.73417809832138     -2.63510840159298     -2.29620313122416
  H           2.60072827199478      1.86598373558176      0.97998528461972
  H          -0.54844429650305     -0.03519818463409     -1.05887418517230
  H          -1.25811201944459      2.58184174789101     -0.55184435403240
  H           3.07062155674076     -4.56534428601337     -0.91648382198425
  H           2.09377069974457     -3.55429723158909      0.13801517456153
  H           1.61266002532694     -3.79638470716292     -1.54244321346952
  H           0.20407816015646      4.66416590709664      0.32523800642695
  H           1.71180011943525      4.24796521330873      1.17227249039260
  H           0.15662615687484      3.82767214194883      1.91248048695351
