  132
jmolscript: load "" {1 1 1} spacegroup "x,y,z" unitcell [{     16.037246    -0.066015     0.105703 }, {     -6.125094    15.136321    -0.001455 }, {     -4.868563    -7.499765    13.396784 }]
Ti     -2.982486     2.291270    11.557448    32.569000
Ti      8.134146     5.373776     1.920956    32.564102
Ti      1.588348    -0.988175     9.657153    32.576213
Ti      3.525211     8.680389     3.807346    32.713790
Ti      1.858274     9.591365     1.846058    32.641004
Ti      3.077643    -2.132715    11.628458    32.716196
Ti     -1.519883     1.025458     9.646107    32.612995
Ti      6.444254     6.442694     3.771629    32.750150
H       3.679175     1.676689     7.173783     3.818702
H      -0.002803    -3.977993     7.394660     3.786483
H       5.169145    11.500728     6.080181     3.774502
H      -2.972063     6.302189    11.391432     3.743754
H       8.006329     1.291191     2.206045     3.782215
H      -6.752392     0.732886    11.220705     3.830101
H      11.823796     6.871549     2.116087     3.764723
H       3.250933    -6.322304    11.311625     3.877960
H      -2.048438     8.204893     2.115551     3.831082
H       4.833223     3.609777     6.061547     3.810504
H       0.083394     4.007494     7.445711     3.835485
H      12.385993    -1.777364     7.374013     3.809413
H      -2.075064     0.701178    13.329719     2.337655
H       7.071203     6.840193     0.110158     2.339694
H       0.466716     0.703926    11.191175     2.380064
H       4.494391     6.953249     2.228917     2.338672
H       3.685028    -2.337150     6.182375     3.665529
H       1.384027     9.849046     7.315444     3.888517
H      -5.993409     4.151198     9.139028     3.760599
H      10.988064     3.428780     4.418189     3.670270
H      -3.524721     2.494872     6.033899     3.732116
H      -1.084459    11.745080     4.349719     3.811380
H       0.083171     6.228595     6.590462     2.645799
H       1.504993     6.968533     5.865703     3.184749
H       1.701922    12.814368     2.628392     3.123798
H       7.901635    -0.749981     3.416737     2.648772
H       7.523692    -0.347630    10.097913     2.609370
H       6.153700    -1.138686    10.872808     3.247003
H      -6.037907     9.057518     6.293588     2.597078
H       8.604012     8.275226     5.602295     3.146258
H       8.113508     5.320831     8.654951     2.532122
H       7.639910     5.614213     6.984091     3.017758
H       7.043503    -4.944669     9.605522     2.556087
H       5.723402    -3.930504    10.173999     3.013038
C       8.814953     4.879211     4.768759    21.883926
C      -3.797817     2.699805     8.737267    21.770676
C       3.965923    -2.555743     8.789298    21.864261
C       1.066732    10.105232     4.682254    21.856328
C       9.652176     4.313242     5.841557    29.094923
C      -4.686039     3.278532     7.686445    27.370363
C       4.816754    -3.208924     7.776563    29.087341
C       0.229851    10.735723     5.744974    27.339665
C       9.352503     4.507098     7.229426    25.120933
C      -4.400295     3.074538     6.320399    30.557154
C       5.912027    -4.063003     8.130603    25.111787
C      -0.853208    11.570181     5.398540    30.702131
C       0.538352    10.495957     7.078193    31.357237
C       4.527938    -2.987962     6.413692    29.669541
C      10.790804     3.562125     5.481239    29.714240
C      -5.799834     4.011285     8.074600    31.240653
C       3.134430     4.909755     6.149113    28.937823
C       1.811184     2.748692     7.362585    27.259189
C       6.905869    10.249047     6.065256    28.904241
C      -1.760359    -2.754562     7.395004    27.154229
C       8.080120     1.359886     0.070399    27.258842
C       1.814421    13.695064     0.129784    28.841100
C       6.893577    -0.706338    13.375916    28.926226
C      -6.727756     0.790109    13.358473    27.244093
C       3.870832     5.983807     5.453534    21.594276
C       1.105604     1.611645     8.029480    21.451690
C       6.208656     9.210678     5.290579    21.258591
C      -1.096826    -1.674394     8.181648    21.172641
C       8.143151     2.850172     0.059627    21.227815
C       1.771327    12.223672     0.087597    21.238189
C       5.608466    -1.429553    13.403677    21.533235
C      -0.551563     9.013035    -0.001479    21.476073
C       1.766058     5.052480     6.547080    24.958490
C       3.163381     2.616815     6.988452    30.494787
C       6.207215    11.425953     6.402428    29.629170
C      -1.042770    -3.898819     7.075169    30.943124
C       8.009129     0.700202     1.289448    30.952339
C      -2.978718     6.895034    12.305471    29.659794
C      12.347819     7.161689     1.206546    29.602894
C      -7.279327     0.446165    12.132206    31.011834
C      -7.762063    10.173360     6.356333    24.944974
C      12.928285    -2.683467     7.112279    30.446495
C       3.795795     3.688178     6.383997    29.779456
C       1.129673     3.938136     7.143659    30.918746
C       7.546201    -0.345342    12.152469    24.923002
C      -2.499496     7.929279     1.164551    30.431080
C       3.208160    -6.860669    12.256327    30.651283
C       7.926933    -0.709702     1.361972    24.833674
N       1.072926     6.211803     6.390927    30.337845
N       7.831415    -1.307355     2.577518    30.072998
N       7.062273    -0.686556    10.929689    30.326175
N      -7.025869     9.064205     6.084212    30.204448
N       8.265440     5.194305     7.664882    30.241199
N       6.256648    -4.341605     9.414479    30.274131
O       7.800644     5.601489     5.093828    28.479912
O      -2.848888     1.933590     8.365980    27.999209
O       4.244808    -2.737645    10.034435    28.593136
O       0.742918    10.286191     3.465451    28.094427
O       2.076302     9.410462     5.056167    28.488289
O       2.987800    -1.827210     8.409246    28.133884
O       9.123509     4.642552     3.548251    28.185097
O      -4.036332     2.999823     9.956664    28.195975
O       6.464053     4.982887     2.736758    33.659978
O      -1.388865     2.550936    10.674800    33.890809
O       7.880015     6.992653     2.686810    33.939357
O      -2.878149     0.603464    10.810973    33.910811
O       1.593969    -2.548769    10.664503    33.649754
O       3.381572    10.159304     2.778695    33.848793
O       2.829883    -0.441799    10.903907    34.333553
O       2.238891     7.990123     2.600621    34.298163
O       5.099755     5.778020     5.155255    28.886435
O      -0.142719     1.718712     8.237986    28.576815
O       6.821404     8.137655     4.982194    28.103552
O      -1.805920    -0.688322     8.557067    27.940333
O       3.252122    -4.055351    12.329897    28.163689
O       1.674784    11.565161     1.176432    28.081370
O       5.047349    -1.739516    12.296206    28.713447
O      -0.012458     9.172264     1.145963    28.536346
O       4.991646     9.419941     4.938905    28.428618
O       0.139129    -1.794881     8.449615    28.099442
O       3.261227     7.069125     5.165057    28.609796
O       1.810240     0.601181     8.358929    28.496461
O       9.965135     5.780565     1.144076    28.651945
O      -4.916041     1.912068    12.303216    28.463360
O       8.210826     3.452729     1.173421    28.090670
O      -3.027770     4.146175    12.345773    28.289323
O       4.940097     7.480997     2.913991    34.221850
O       0.088578     0.112134    10.517708    34.370959
O       7.357100     5.911308     0.085531    34.314254
O      -2.319800     1.640244    13.395600    34.308389
  
Same information as above printed with atom number.
   1 Ti    -2.982486     2.291270    11.557448    32.569000
   2 Ti     8.134146     5.373776     1.920956    32.564102
   3 Ti     1.588348    -0.988175     9.657153    32.576213
   4 Ti     3.525211     8.680389     3.807346    32.713790
   5 Ti     1.858274     9.591365     1.846058    32.641004
   6 Ti     3.077643    -2.132715    11.628458    32.716196
   7 Ti    -1.519883     1.025458     9.646107    32.612995
   8 Ti     6.444254     6.442694     3.771629    32.750150
   9 H      3.679175     1.676689     7.173783     3.818702
  10 H     -0.002803    -3.977993     7.394660     3.786483
  11 H      5.169145    11.500728     6.080181     3.774502
  12 H     -2.972063     6.302189    11.391432     3.743754
  13 H      8.006329     1.291191     2.206045     3.782215
  14 H     -6.752392     0.732886    11.220705     3.830101
  15 H     11.823796     6.871549     2.116087     3.764723
  16 H      3.250933    -6.322304    11.311625     3.877960
  17 H     -2.048438     8.204893     2.115551     3.831082
  18 H      4.833223     3.609777     6.061547     3.810504
  19 H      0.083394     4.007494     7.445711     3.835485
  20 H     12.385993    -1.777364     7.374013     3.809413
  21 H     -2.075064     0.701178    13.329719     2.337655
  22 H      7.071203     6.840193     0.110158     2.339694
  23 H      0.466716     0.703926    11.191175     2.380064
  24 H      4.494391     6.953249     2.228917     2.338672
  25 H      3.685028    -2.337150     6.182375     3.665529
  26 H      1.384027     9.849046     7.315444     3.888517
  27 H     -5.993409     4.151198     9.139028     3.760599
  28 H     10.988064     3.428780     4.418189     3.670270
  29 H     -3.524721     2.494872     6.033899     3.732116
  30 H     -1.084459    11.745080     4.349719     3.811380
  31 H      0.083171     6.228595     6.590462     2.645799
  32 H      1.504993     6.968533     5.865703     3.184749
  33 H      1.701922    12.814368     2.628392     3.123798
  34 H      7.901635    -0.749981     3.416737     2.648772
  35 H      7.523692    -0.347630    10.097913     2.609370
  36 H      6.153700    -1.138686    10.872808     3.247003
  37 H     -6.037907     9.057518     6.293588     2.597078
  38 H      8.604012     8.275226     5.602295     3.146258
  39 H      8.113508     5.320831     8.654951     2.532122
  40 H      7.639910     5.614213     6.984091     3.017758
  41 H      7.043503    -4.944669     9.605522     2.556087
  42 H      5.723402    -3.930504    10.173999     3.013038
  43 C      8.814953     4.879211     4.768759    21.883926
  44 C     -3.797817     2.699805     8.737267    21.770676
  45 C      3.965923    -2.555743     8.789298    21.864261
  46 C      1.066732    10.105232     4.682254    21.856328
  47 C      9.652176     4.313242     5.841557    29.094923
  48 C     -4.686039     3.278532     7.686445    27.370363
  49 C      4.816754    -3.208924     7.776563    29.087341
  50 C      0.229851    10.735723     5.744974    27.339665
  51 C      9.352503     4.507098     7.229426    25.120933
  52 C     -4.400295     3.074538     6.320399    30.557154
  53 C      5.912027    -4.063003     8.130603    25.111787
  54 C     -0.853208    11.570181     5.398540    30.702131
  55 C      0.538352    10.495957     7.078193    31.357237
  56 C      4.527938    -2.987962     6.413692    29.669541
  57 C     10.790804     3.562125     5.481239    29.714240
  58 C     -5.799834     4.011285     8.074600    31.240653
  59 C      3.134430     4.909755     6.149113    28.937823
  60 C      1.811184     2.748692     7.362585    27.259189
  61 C      6.905869    10.249047     6.065256    28.904241
  62 C     -1.760359    -2.754562     7.395004    27.154229
  63 C      8.080120     1.359886     0.070399    27.258842
  64 C      1.814421    13.695064     0.129784    28.841100
  65 C      6.893577    -0.706338    13.375916    28.926226
  66 C     -6.727756     0.790109    13.358473    27.244093
  67 C      3.870832     5.983807     5.453534    21.594276
  68 C      1.105604     1.611645     8.029480    21.451690
  69 C      6.208656     9.210678     5.290579    21.258591
  70 C     -1.096826    -1.674394     8.181648    21.172641
  71 C      8.143151     2.850172     0.059627    21.227815
  72 C      1.771327    12.223672     0.087597    21.238189
  73 C      5.608466    -1.429553    13.403677    21.533235
  74 C     -0.551563     9.013035    -0.001479    21.476073
  75 C      1.766058     5.052480     6.547080    24.958490
  76 C      3.163381     2.616815     6.988452    30.494787
  77 C      6.207215    11.425953     6.402428    29.629170
  78 C     -1.042770    -3.898819     7.075169    30.943124
  79 C      8.009129     0.700202     1.289448    30.952339
  80 C     -2.978718     6.895034    12.305471    29.659794
  81 C     12.347819     7.161689     1.206546    29.602894
  82 C     -7.279327     0.446165    12.132206    31.011834
  83 C     -7.762063    10.173360     6.356333    24.944974
  84 C     12.928285    -2.683467     7.112279    30.446495
  85 C      3.795795     3.688178     6.383997    29.779456
  86 C      1.129673     3.938136     7.143659    30.918746
  87 C      7.546201    -0.345342    12.152469    24.923002
  88 C     -2.499496     7.929279     1.164551    30.431080
  89 C      3.208160    -6.860669    12.256327    30.651283
  90 C      7.926933    -0.709702     1.361972    24.833674
  91 N      1.072926     6.211803     6.390927    30.337845
  92 N      7.831415    -1.307355     2.577518    30.072998
  93 N      7.062273    -0.686556    10.929689    30.326175
  94 N     -7.025869     9.064205     6.084212    30.204448
  95 N      8.265440     5.194305     7.664882    30.241199
  96 N      6.256648    -4.341605     9.414479    30.274131
  97 O      7.800644     5.601489     5.093828    28.479912
  98 O     -2.848888     1.933590     8.365980    27.999209
  99 O      4.244808    -2.737645    10.034435    28.593136
 100 O      0.742918    10.286191     3.465451    28.094427
 101 O      2.076302     9.410462     5.056167    28.488289
 102 O      2.987800    -1.827210     8.409246    28.133884
 103 O      9.123509     4.642552     3.548251    28.185097
 104 O     -4.036332     2.999823     9.956664    28.195975
 105 O      6.464053     4.982887     2.736758    33.659978
 106 O     -1.388865     2.550936    10.674800    33.890809
 107 O      7.880015     6.992653     2.686810    33.939357
 108 O     -2.878149     0.603464    10.810973    33.910811
 109 O      1.593969    -2.548769    10.664503    33.649754
 110 O      3.381572    10.159304     2.778695    33.848793
 111 O      2.829883    -0.441799    10.903907    34.333553
 112 O      2.238891     7.990123     2.600621    34.298163
 113 O      5.099755     5.778020     5.155255    28.886435
 114 O     -0.142719     1.718712     8.237986    28.576815
 115 O      6.821404     8.137655     4.982194    28.103552
 116 O     -1.805920    -0.688322     8.557067    27.940333
 117 O      3.252122    -4.055351    12.329897    28.163689
 118 O      1.674784    11.565161     1.176432    28.081370
 119 O      5.047349    -1.739516    12.296206    28.713447
 120 O     -0.012458     9.172264     1.145963    28.536346
 121 O      4.991646     9.419941     4.938905    28.428618
 122 O      0.139129    -1.794881     8.449615    28.099442
 123 O      3.261227     7.069125     5.165057    28.609796
 124 O      1.810240     0.601181     8.358929    28.496461
 125 O      9.965135     5.780565     1.144076    28.651945
 126 O     -4.916041     1.912068    12.303216    28.463360
 127 O      8.210826     3.452729     1.173421    28.090670
 128 O     -3.027770     4.146175    12.345773    28.289323
 129 O      4.940097     7.480997     2.913991    34.221850
 130 O      0.088578     0.112134    10.517708    34.370959
 131 O      7.357100     5.911308     0.085531    34.314254
 132 O     -2.319800     1.640244    13.395600    34.308389
