! Opt B3LYP D4 def2-TZVP TightSCF TightOpt

%maxcore 5000

%pal
nprocs 30
end

* xyz 0 1
S           3.73207598427367      0.94642508541177      3.25512193222003
  S           1.01047434605466      1.69643167246516      3.48392745406833
  F           5.83050154876021      2.26862771239232      4.12668439733104
  F           3.95894275034168      3.33746399875074      4.38065623124884
  F           4.44547772214358      1.67871803009039      5.69190459526208
  F           1.37669439680240      2.69109600647900      5.90613024446874
  F          -0.65914999017677      2.81829589412701      5.16167125075670
  F           0.12581326641123      0.91865583670035      5.85924732847525
  O           3.83863369767986      1.59655972710447      1.96402844262214
  O           4.43531100552123     -0.28971558944696      3.44684746005778
  O          -0.06258136214075      0.93566434794703      2.88805635478706
  O           1.29630552056842      2.99229138018000      2.91114467785561
  N           2.25421367997275      0.77227073258178      3.77713840761969
  C           4.53890157046626      2.13807864988194      4.44299343511181
  C           0.43306996980339      2.04594358000002      5.21954318911049
  N           1.26715453057345      0.18694476924173      0.00109370146085
  N           0.23868849522113      2.09054827342548      0.00226434954221
  C           2.31976475736840     -0.82567337445527      0.18441248186557
  C           2.00073847617209     -1.79198920368411      1.31838779810677
  C           3.14494797567229     -2.77982330716833      1.54023150954569
  C           1.40936353094356      1.49284794695450      0.21656495574893
  C          -0.04117892611610     -0.05992507834224     -0.34700976697134
  C          -0.68599286249668      1.13275693852470     -0.34521278179138
  C           2.88694624949217     -3.69554481422613      2.73329260315291
  C          -0.04287889566700      3.50388416136418      0.22799473017963
  H           3.23880070619317     -0.28081857604636      0.39110208247691
  H           2.43888006811827     -1.35133327802983     -0.76526525022045
  H           1.81837415538168     -1.22391312801821      2.23104407680722
  H           1.07781478000738     -2.33704263495983      1.09412830971145
  H           4.06700740032904     -2.22031498777052      1.71362478042882
  H           3.29660090345799     -3.37843913211665      0.63464122319410
  H           2.31171585731850      1.96223200930492      0.57420008370228
  H          -0.40137723191142     -1.05038763007368     -0.55364948650394
  H          -1.71357308958637      1.37642610775156     -0.54336129732069
  H           1.96831885159783     -4.27376233459454      2.60148254013741
  H           3.70860750039271     -4.40030098755518      2.87149050435642
  H           2.79075003609551     -3.11045294545002      3.64957023559643
  H          -0.70354534377118      3.60475470037979      1.08605847899750
  H          -0.50180335346628      3.92757450028710     -0.66410183937186
  H           0.88777332219770      4.01455694059185      0.45212957617261
*
