40
Coordinates from ORCA-job input E -2250.591695046225
  S           3.73211883934481      0.94645121489214      3.25506815277708
  S           1.01046927537852      1.69640705883975      3.48392743090791
  F           5.83055421818415      2.26877321272693      4.12643684234302
  F           3.95894165814545      3.33746028141579      4.38062507310079
  F           4.44575226940720      1.67872119291712      5.69178917678693
  F           1.37628557534259      2.69133505132142      5.90606826899848
  F          -0.65963491490679      2.81757993026203      5.16166181839219
  F           0.12620972379683      0.91833774041716      5.85929311719789
  O           3.83863795789470      1.59655702741356      1.96397200812182
  O           4.43532646864830     -0.28969478564887      3.44677086857741
  O          -0.06246429240941      0.93556468483591      2.88790931580726
  O           1.29626094388560      2.99230384775694      2.91121984262232
  N           2.25425683790780      0.77228504456035      3.77713610606906
  C           4.53899679812071      2.13812629053208      4.44289334591805
  C           0.43293529927974      2.04573302897149      5.21953025146637
  N           1.26716530016064      0.18698483823217      0.00114893794656
  N           0.23872716668361      2.09057669862970      0.00225106143029
  C           2.31974956266792     -0.82565458787417      0.18444792307043
  C           2.00071809998661     -1.79194852283422      1.31844079650472
  C           3.14489226234615     -2.77981640563288      1.54028533571938
  C           1.40938158717883      1.49288554718535      0.21655492036440
  C          -0.04118488675155     -0.05989145319984     -0.34691496195309
  C          -0.68597935337700      1.13281575631474     -0.34520024811137
  C           2.88688607064788     -3.69550328291214      2.73336311392189
  C          -0.04276845472086      3.50392893658018      0.22797610720855
  H           3.23879529289400     -0.28081482856259      0.39111032574806
  H           2.43880024221741     -1.35133191796284     -0.76522971289577
  H           1.81838325776872     -1.22384552541060      2.23108885342479
  H           1.07777281375902     -2.33697675208358      1.09418576370528
  H           4.06696492206283     -2.22032134785423      1.71362937756578
  H           3.29648790747686     -3.37846942213077      0.63470971884541
  H           2.31174679404751      1.96224624330814      0.57418106031741
  H          -0.40136711872447     -1.05037187028865     -0.55356109366925
  H          -1.71355297712953      1.37652038201735     -0.54337436208495
  H           1.96824183747998     -4.27370457197409      2.60158463325785
  H           3.70854671539616     -4.40025933659942      2.87156747550310
  H           2.79069916016119     -3.11042127098524      3.64965072336635
  H          -0.70346014858918      3.60484352287501      1.08600536261442
  H          -0.50161666589567      3.92765931017578     -0.66414030111777
  H           0.88790595423240      4.01454103977298      0.45214657023057
