! Opt B3LYP D4 def2-TZVP TightSCF TightOpt

%maxcore 5000

%pal
nprocs 30
end

* xyz 0 1
N      -33.9633331618    -22.3791470276     -8.0571204387                 
N      -35.7387296215    -23.5929693898     -7.7758330373                 
C      -32.6880600983    -21.8728464042     -8.6006773309                 
C      -31.4887080830    -22.3157124854     -7.7687509313                 
C      -31.2935954340    -23.8294516916     -7.7072244147                 
C      -34.6861953569    -23.3747146005     -8.5653256537                 
C      -34.5701662879    -21.9483240069     -6.8986110527                 
C      -35.6834202109    -22.7057777325     -6.7228740641                 
C      -30.0423178666    -24.2240563178     -6.9259776637                 
C      -36.7824113154    -24.5968948391     -7.9938400456                 
H      -32.6154438582    -22.2424723947     -9.6234619319                 
H      -32.7673327849    -20.7868229187     -8.6426571692                 
H      -31.5712588098    -21.9038180679     -6.7582345126                 
H      -30.6087503667    -21.8449550023     -8.2155338862                 
H      -32.1682443264    -24.2984453059     -7.2434093023                 
H      -31.2302398475    -24.2266544470     -8.7264265204                 
H      -34.4579366403    -23.9154087800     -9.4672153592                 
H      -34.1685615875    -21.1459278500     -6.3061783182                 
H      -36.4334683265    -22.6849068301     -5.9523069656                 
H      -30.0906523066    -23.8648592782     -5.8957266062                 
H      -29.1442832003    -23.8047853066     -7.3838092360                 
H      -29.9253030260    -25.3075687043     -6.8954986772                 
H      -36.5508809096    -25.1577229955     -8.8954344671                 
H      -36.8159998807    -25.2755905965     -7.1437688616                 
H      -37.7446430258    -24.1020704374     -8.1116493000                 
O       12.6896538777      5.4142140992      2.1246974605                 
F       10.2265538777      7.2392140992      1.9184974605                 
O        9.9019538777      4.3095140992      1.3715974605                 
F       14.8095538777      7.1260140992      0.8842974605                 
F        8.2471538777      6.8221140992      1.1360974605                 
S       12.8927538777      5.3205140992      0.7025974605                 
C        9.5574538777      6.8510140992      0.8283974605                 
F       12.8433538777      7.9871140992      0.5692974605                 
C       13.6423538777      6.9647140992      0.2339974605                 
O       13.8463538777      4.3667140992      0.1987974605                 
S       10.1040538777      5.1650140992      0.2324974605                 
N       11.6019538777      5.3708140992     -0.2101025395                 
F        9.7324538777      7.7832140992     -0.1216025395                 
F       13.8926538777      7.0467140992     -1.0797025395                 
O        9.3002538777      4.9677140992     -0.9444025395
*
