25
Coordinates from ORCA-job BMI E -423.084744467468
  N      -0.261300      0.745600     -0.288400
  N      -1.971500     -0.526700     -0.036700
  C       1.001100      1.277600     -0.792100
  C       2.211900      0.740400     -0.032200
  C       2.332200     -0.781900     -0.112600
  C      -0.841700     -0.365600     -0.733100
  C      -1.015700      1.310900      0.702000
  C      -2.105100      0.502400      0.864100
  C       3.554500     -1.282900      0.641000
  C      -2.904500     -1.619700     -0.212000
  H       1.076700      1.025900     -1.856700
  H       0.971100      2.371100     -0.722000
  H       2.139400      1.041500      1.020000
  H       3.118700      1.203700     -0.438600
  H       1.448800     -1.260300      0.322400
  H       2.396300     -1.097300     -1.160200
  H      -0.475700     -1.015600     -1.512600
  H      -0.671100      2.217300      1.161100
  H      -2.968200      0.512900      1.501500
  H       3.501100     -1.011700      1.700200
  H       4.473400     -0.859300      0.223300
  H       3.621600     -2.373100      0.572400
  H      -2.538700     -2.306200     -0.980300
  H      -3.008700     -2.160300      0.732700
  H      -3.874400     -1.219200     -0.519200
25
Coordinates from ORCA-job BMI E -423.086999036260
  N      -0.278963      0.731407     -0.309432
  N      -2.022427     -0.519020     -0.050275
  C       1.002936      1.244257     -0.808396
  C       2.208491      0.719021     -0.023274
  C       2.398927     -0.798471     -0.090880
  C      -0.899965     -0.358693     -0.757955
  C      -1.018001      1.284571      0.707561
  C      -2.116195      0.496094      0.873928
  C       3.651157     -1.255988      0.656407
  C      -2.992125     -1.594963     -0.231237
  H       1.080919      0.978229     -1.863229
  H       0.961373      2.332127     -0.756097
  H       2.119764      1.028893      1.022757
  H       3.098188      1.213211     -0.418944
  H       1.533911     -1.307770      0.345405
  H       2.463862     -1.113952     -1.138114
  H      -0.561833     -0.998126     -1.553052
  H      -0.667903      2.177285      1.193818
  H      -2.962532      0.531278      1.536781
  H       3.598854     -0.984408      1.712722
  H       4.549292     -0.800978      0.234448
  H       3.764390     -2.339112      0.594217
  H      -2.651919     -2.264158     -1.017126
  H      -3.093096     -2.156527      0.696489
  H      -3.956904     -1.174709     -0.512523
25
Coordinates from ORCA-job BMI E -423.087770391856
  N      -0.277792      0.728662     -0.332688
  N      -2.028275     -0.522388     -0.057418
  C       1.012938      1.234514     -0.832180
  C       2.202465      0.716742     -0.025527
  C       2.406810     -0.797089     -0.078233
  C      -0.920807     -0.349023     -0.780940
  C      -0.995513      1.256613      0.718893
  C      -2.093413      0.477177      0.889499
  C       3.661542     -1.242951      0.675611
  C      -3.016368     -1.589627     -0.240322
  H       1.089766      0.947839     -1.879827
  H       0.959624      2.320647     -0.795168
  H       2.105129      1.043781      1.013945
  H       3.087462      1.218555     -0.422549
  H       1.537383     -1.306626      0.351737
  H       2.475331     -1.117212     -1.123723
  H      -0.602788     -0.974866     -1.595149
  H      -0.650735      2.135554      1.234629
  H      -2.916106      0.529297      1.581111
  H       3.606859     -0.963747      1.729288
  H       4.557932     -0.785248      0.254543
  H       3.785111     -2.324047      0.623854
  H      -2.693009     -2.237910     -1.048599
  H      -3.100892     -2.171798      0.674402
  H      -3.982452     -1.157348     -0.491187
25
Coordinates from ORCA-job BMI E -423.087970707367
  N      -0.275766      0.724971     -0.347469
  N      -2.025915     -0.526892     -0.062627
  C       1.017657      1.227580     -0.850848
  C       2.200759      0.720665     -0.031975
  C       2.401870     -0.792647     -0.066481
  C      -0.934030     -0.339398     -0.803405
  C      -0.972293      1.233603      0.729015
  C      -2.065600      0.452115      0.908563
  C       3.652668     -1.231815      0.694440
  C      -3.023355     -1.584992     -0.249556
  H       1.092886      0.921269     -1.893777
  H       0.957216      2.314504     -0.829318
  H       2.102200      1.065552      1.001775
  H       3.086115      1.219347     -0.435693
  H       1.527845     -1.294356      0.363556
  H       2.471847     -1.123829     -1.108617
  H      -0.633810     -0.948981     -1.637530
  H      -0.628851      2.101049      1.264308
  H      -2.865959      0.506635      1.625187
  H       3.597380     -0.939105      1.744901
  H       4.550834     -0.780360      0.269401
  H       3.774939     -2.314084      0.656593
  H      -2.717664     -2.213046     -1.081582
  H      -3.088857     -2.187932      0.653604
  H      -3.991915     -1.140352     -0.468464
25
Coordinates from ORCA-job BMI E -423.088045799749
  N      -0.273412      0.720096     -0.355492
  N      -2.022444     -0.531412     -0.065901
  C       1.018035      1.222857     -0.866062
  C       2.201541      0.727901     -0.041772
  C       2.394561     -0.786466     -0.056324
  C      -0.942030     -0.333178     -0.820343
  C      -0.946774      1.208228      0.743927
  C      -2.043383      0.430072      0.923085
  C       3.641119     -1.221066      0.711065
  C      -3.026938     -1.580152     -0.258862
  H       1.091801      0.900434     -1.904794
  H       0.953071      2.310357     -0.858874
  H       2.106169      1.089212      0.986800
  H       3.087982      1.218527     -0.454360
  H       1.516921     -1.277857      0.378055
  H       2.463897     -1.131372     -1.094158
  H      -0.656792     -0.927214     -1.671229
  H      -0.597467      2.062626      1.295693
  H      -2.829170      0.482728      1.655477
  H       3.587056     -0.913274      1.757588
  H       4.541741     -0.779685      0.279875
  H       3.757868     -2.304798      0.688276
  H      -2.737070     -2.192455     -1.108808
  H      -3.080003     -2.200100      0.633997
  H      -3.996078     -1.124509     -0.452860
25
Coordinates from ORCA-job BMI E -423.088089262927
  N      -0.270644      0.712800     -0.361240
  N      -2.021078     -0.534699     -0.069881
  C       1.016352      1.216595     -0.881326
  C       2.203633      0.735742     -0.053953
  C       2.388993     -0.779908     -0.044390
  C      -0.951971     -0.326197     -0.838582
  C      -0.921422      1.181813      0.758042
  C      -2.018689      0.403131      0.940637
  C       3.632515     -1.208121      0.730024
  C      -3.034460     -1.572113     -0.270307
  H       1.089305      0.878761     -1.915406
  H       0.947721      2.304178     -0.889313
  H       2.113055      1.114208      0.968948
  H       3.090727      1.216163     -0.476957
  H       1.508830     -1.259969      0.397336
  H       2.456793     -1.141586     -1.076610
  H      -0.683795     -0.902557     -1.707065
  H      -0.562075      2.022907      1.323317
  H      -2.789227      0.446427      1.689558
  H       3.580307     -0.882944      1.771477
  H       4.535345     -0.778510      0.291256
  H       3.743349     -2.292895      0.724858
  H      -2.764069     -2.166648     -1.139279
  H      -3.075689     -2.211974      0.609278
  H      -4.003605     -1.105105     -0.436421
25
Coordinates from ORCA-job BMI E -423.088115968544
  N      -0.268549      0.703993     -0.364225
  N      -2.023730     -0.536057     -0.073794
  C       1.013510      1.208815     -0.893655
  C       2.205639      0.741224     -0.064721
  C       2.388665     -0.774933     -0.033101
  C      -0.963393     -0.320338     -0.853763
  C      -0.899394      1.155376      0.772252
  C      -2.001627      0.381794      0.953289
  C       3.632401     -1.194359      0.746119
  C      -3.046597     -1.562482     -0.280985
  H       1.086368      0.858799     -1.923591
  H       0.941978      2.296074     -0.914714
  H       2.119240      1.133795      0.953223
  H       3.091980      1.213918     -0.497033
  H       1.508429     -1.246918      0.416968
  H       2.454411     -1.151806     -1.059948
  H      -0.710858     -0.881267     -1.736738
  H      -0.526210      1.982317      1.349279
  H      -2.761964      0.415804      1.713080
  H       3.582223     -0.854121      1.782792
  H       4.535614     -0.773324      0.299939
  H       3.740759     -2.279317      0.756498
  H      -2.792917     -2.142528     -1.164510
  H      -3.081188     -2.219059      0.586469
  H      -4.014590     -1.085900     -0.425130
25
Coordinates from ORCA-job BMI E -423.088132719854
  N      -0.267060      0.693530     -0.365145
  N      -2.030321     -0.535656     -0.077887
  C       1.010764      1.198945     -0.902548
  C       2.207214      0.743581     -0.072362
  C       2.393625     -0.772009     -0.022883
  C      -0.975328     -0.316902     -0.864862
  C      -0.883538      1.132246      0.783835
  C      -1.990386      0.364658      0.963307
  C       3.640417     -1.180169      0.758445
  C      -3.063453     -1.550942     -0.291260
  H       1.083913      0.839122     -1.928853
  H       0.936442      2.285649     -0.934581
  H       2.123475      1.146983      0.941524
  H       3.091354      1.212547     -0.512399
  H       1.515536     -1.240156      0.435243
  H       2.457497     -1.161084     -1.045213
  H      -0.736055     -0.865917     -1.758761
  H      -0.496474      1.946816      1.369285
  H      -2.743784      0.390187      1.730419
  H       3.591885     -0.828254      1.791187
  H       4.542000     -0.763069      0.305554
  H       3.750599     -2.264628      0.781056
  H      -2.823019     -2.119486     -1.185670
  H      -3.095871     -2.220974      0.565787
  H      -4.029232     -1.065517     -0.419220
25
Coordinates from ORCA-job BMI E -423.088140155463
  N      -0.266371      0.685705     -0.364930
  N      -2.036637     -0.534623     -0.080875
  C       1.009474      1.191184     -0.906587
  C       2.208032      0.743466     -0.075355
  C       2.399435     -0.771133     -0.016740
  C      -0.983964     -0.315309     -0.870596
  C      -0.875906      1.118246      0.790674
  C      -1.986648      0.356567      0.967938
  C       3.649459     -1.170640      0.764452
  C      -3.076412     -1.542919     -0.297555
  H       1.082721      0.825465     -1.930665
  H       0.933043      2.277476     -0.945050
  H       2.125244      1.152578      0.936276
  H       3.089905      1.212401     -0.519841
  H       1.523723     -1.239005      0.446182
  H       2.462293     -1.166459     -1.036696
  H      -0.752295     -0.858190     -1.770174
  H      -0.479509      1.924917      1.380838
  H      -2.737365      0.378036      1.737864
  H       3.601721     -0.812972      1.795210
  H       4.548900     -0.753426      0.307579
  H       3.763189     -2.254511      0.793152
  H      -2.842434     -2.105578     -1.197294
  H      -3.109048     -2.219706      0.554057
  H      -4.040352     -1.052071     -0.417863
25
Coordinates from ORCA-job BMI E -423.088142370972
  N      -0.266039      0.681330     -0.364471
  N      -2.040262     -0.534081     -0.082450
  C       1.009250      1.187006     -0.907746
  C       2.208454      0.742982     -0.075899
  C       2.403010     -0.770921     -0.014281
  C      -0.987797     -0.315537     -0.872210
  C      -0.873295      1.112078      0.793623
  C      -1.985888      0.353585      0.969752
  C       3.654700     -1.166056      0.766397
  C      -3.083299     -1.538833     -0.300574
  H       1.082246      0.818357     -1.930794
  H       0.931260      2.273101     -0.949067
  H       2.125857      1.154400      0.934796
  H       3.088876      1.213004     -0.522341
  H       1.528579     -1.239530      0.450329
  H       2.465649     -1.168320     -1.033444
  H      -0.759045     -0.856444     -1.773780
  H      -0.472803      1.915362      1.385633
  H      -2.735911      0.374115      1.740386
  H       3.607092     -0.806555      1.796539
  H       4.552785     -0.747620      0.307983
  H       3.770970     -2.249606      0.797065
  H      -2.851390     -2.099521     -1.202107
  H      -3.116803     -2.217780      0.549270
  H      -4.045996     -1.045016     -0.418609
25
Coordinates from ORCA-job BMI E -423.088142761019
  N      -0.265953      0.680651     -0.364215
  N      -2.040808     -0.534011     -0.082689
  C       1.009517      1.186538     -0.907378
  C       2.208621      0.742825     -0.075467
  C       2.403622     -0.770954     -0.014458
  C      -0.988112     -0.315793     -0.871960
  C      -0.873630      1.111978      0.793674
  C      -1.986516      0.354047      0.969487
  C       3.655309     -1.165883      0.766103
  C      -3.083878     -1.538634     -0.300608
  H       1.082289      0.817557     -1.930370
  H       0.930995      2.272635     -0.948805
  H       2.125968      1.154193      0.935255
  H       3.088756      1.213507     -0.521959
  H       1.529219     -1.240016      0.449753
  H       2.466482     -1.167921     -1.033781
  H      -0.759225     -0.857025     -1.773359
  H      -0.472827      1.915134      1.385666
  H      -2.736888      0.375015      1.739727
  H       3.607479     -0.806875      1.796434
  H       4.553223     -0.746733      0.307950
  H       3.772119     -2.249414      0.796291
  H      -2.851597     -2.099744     -1.201813
  H      -3.117588     -2.217017      0.549680
  H      -4.046378     -1.044560     -0.419159
25
Coordinates from ORCA-job BMI E -423.088142852773
  N      -0.265811      0.680059     -0.364206
  N      -2.041020     -0.534077     -0.082860
  C       1.009558      1.186209     -0.907577
  C       2.208786      0.743004     -0.075646
  C       2.403860     -0.770743     -0.014409
  C      -0.988338     -0.315927     -0.872150
  C      -0.873061      1.111158      0.794012
  C      -1.986170      0.353535      0.969758
  C       3.655337     -1.165486      0.766475
  C      -3.084444     -1.538269     -0.300846
  H       1.082210      0.816812     -1.930442
  H       0.930559      2.272263     -0.949334
  H       2.126190      1.154674      0.934960
  H       3.088796      1.213783     -0.522317
  H       1.529329     -1.239795      0.449574
  H       2.466976     -1.167808     -1.033682
  H      -0.759750     -0.856922     -1.773788
  H      -0.471818      1.913900      1.386229
  H      -2.736402      0.374522      1.740132
  H       3.607250     -0.806417      1.796783
  H       4.553288     -0.746210      0.308488
  H       3.772298     -2.249008      0.796775
  H      -2.852520     -2.099273     -1.202232
  H      -3.118144     -2.216765      0.549373
  H      -4.046760     -1.043720     -0.419070
25
Coordinates from ORCA-job BMI E -423.088142836513
  N      -0.265728      0.679709     -0.364259
  N      -2.041124     -0.534113     -0.082971
  C       1.009545      1.186010     -0.907816
  C       2.208897      0.743144     -0.075889
  C       2.404010     -0.770596     -0.014363
  C      -0.988590     -0.315858     -0.872464
  C      -0.872561      1.110532      0.794251
  C      -1.985815      0.353078      0.969988
  C       3.655288     -1.165200      0.766884
  C      -3.084806     -1.538039     -0.300978
  H       1.082162      0.816384     -1.930600
  H       0.930273      2.272033     -0.949795
  H       2.126347      1.155038      0.934627
  H       3.088855      1.213901     -0.522672
  H       1.529361     -1.239589      0.449453
  H       2.467366     -1.167798     -1.033565
  H      -0.760331     -0.856553     -1.774354
  H      -0.470956      1.912928      1.386684
  H      -2.735863      0.373949      1.740555
  H       3.606953     -0.806003      1.797135
  H       4.553322     -0.745929      0.309053
  H       3.772302     -2.248713      0.797363
  H      -2.853275     -2.098867     -1.202573
  H      -3.118394     -2.216734      0.549093
  H      -4.047038     -1.043214     -0.418787
