! SP B3LYP D4 def2-TZVP TightSCF CHELPG

%maxcore 5000

%pal
nprocs 25
end

* xyz 1 1
  N          -0.26572770849193      0.67970910877257     -0.36425860888958
  N          -2.04112416820421     -0.53411325340545     -0.08297120741592
  C           1.00954535499503      1.18600973223017     -0.90781550103247
  C           2.20889737034269      0.74314365103849     -0.07588910143772
  C           2.40401001933167     -0.77059555518175     -0.01436258479172
  C          -0.98858990362213     -0.31585846403610     -0.87246382380874
  C          -0.87256083453730      1.11053212957130      0.79425077717869
  C          -1.98581475757162      0.35307840395743      0.96998776571752
  C           3.65528758669840     -1.16520018137782      0.76688416612810
  C          -3.08480586207706     -1.53803870271153     -0.30097821577978
  H           1.08216159517347      0.81638374171856     -1.93060010201834
  H           0.93027266841846      2.27203321776125     -0.94979533932893
  H           2.12634664354088      1.15503806851023      0.93462731722605
  H           3.08885508658608      1.21390113407278     -0.52267205636207
  H           1.52936112695012     -1.23958916947533      0.44945252756597
  H           2.46736560583226     -1.16779831057842     -1.03356469055113
  H          -0.76033118695115     -0.85655264359807     -1.77435352929898
  H          -0.47095613420514      1.91292828644706      1.38668351162618
  H          -2.73586287317457      0.37394930630594      1.74055486425884
  H           3.60695314671124     -0.80600314182057      1.79713522361825
  H           4.55332225305576     -0.74592917018953      0.30905259383044
  H           3.77230242733650     -2.24871256786395      0.79736315270233
  H          -2.85327545629083     -2.09886685911659     -1.20257263723669
  H          -3.11839442737193     -2.21673446005753      0.54909296824404
  H          -4.04703757247471     -1.04321430097314     -0.41878747014434
*
