! Opt B3LYP D4 def2-TZVP TightSCF TightOpt

%maxcore 5000

%pal
nprocs 30
end

* xyz -1 1
S         -1.49180       -0.78220        0.00440
S          1.49200       -0.78230        0.00440
F         -2.54140        1.24590       -1.22250
F         -3.83500        0.28320        0.24670
F         -2.18450        1.54580        0.91030
F          3.83440        0.28390        0.25020
F          2.54400        1.24370       -1.22350
F          2.18230        1.54740        0.90790
O         -1.45900       -1.28340        1.36400
O         -1.86460       -1.63480       -1.10670
O          1.86460       -1.63500       -1.10660
O          1.45900       -1.28340        1.36400
N          0.00000       -0.00520       -0.35940
C         -2.55130        0.62810       -0.01650
C          2.55140        0.62820       -0.01660
*
