15
Coordinates from ORCA-job TFS E -1827.318640257133
  S      -1.491800     -0.782200      0.004400
  S       1.492000     -0.782300      0.004400
  F      -2.541400      1.245900     -1.222500
  F      -3.835000      0.283200      0.246700
  F      -2.184500      1.545800      0.910300
  F       3.834400      0.283900      0.250200
  F       2.544000      1.243700     -1.223500
  F       2.182300      1.547400      0.907900
  O      -1.459000     -1.283400      1.364000
  O      -1.864600     -1.634800     -1.106700
  O       1.864600     -1.635000     -1.106600
  O       1.459000     -1.283400      1.364000
  N       0.000000     -0.005200     -0.359400
  C      -2.551300      0.628100     -0.016500
  C       2.551400      0.628200     -0.016600
15
Coordinates from ORCA-job TFS E -1827.348860316562
  S      -1.428238     -0.824533      0.008240
  S       1.428357     -0.824580      0.008345
  F      -2.423488      1.269596     -1.221121
  F      -3.741365      0.331139      0.227296
  F      -2.083026      1.547925      0.909983
  F       3.740828      0.331731      0.230664
  F       2.426054      1.267588     -1.222192
  F       2.080921      1.549470      0.907700
  O      -1.499821     -1.312421      1.366822
  O      -1.896341     -1.637523     -1.090170
  O       1.896327     -1.637719     -1.089954
  O       1.499829     -1.312311      1.366970
  N      -0.000004     -0.059228     -0.354804
  C      -2.456874      0.655337     -0.023798
  C       2.456940      0.655428     -0.023881
15
Coordinates from ORCA-job TFS E -1827.359294576027
  S      -1.371304     -0.853183      0.015779
  S       1.371312     -0.853141      0.016130
  F      -2.336557      1.301137     -1.219784
  F      -3.682235      0.359923      0.193251
  F      -2.032607      1.562574      0.911100
  F       3.681846      0.360354      0.196131
  F       2.338744      1.299382     -1.220835
  F       2.030905      1.564043      0.909130
  O      -1.531180     -1.345014      1.359795
  O      -1.886179     -1.645452     -1.071452
  O       1.886228     -1.645697     -1.070861
  O       1.531079     -1.344590      1.360289
  N       0.000025     -0.132046     -0.314461
  C      -2.395839      0.685766     -0.032050
  C       2.395862      0.685842     -0.032061
15
Coordinates from ORCA-job TFS E -1827.360516781508
  S      -1.389679     -0.862589      0.018640
  S       1.389624     -0.862407      0.019745
  F      -2.326829      1.313732     -1.220399
  F      -3.695764      0.382800      0.180156
  F      -2.035466      1.568136      0.913007
  F       3.695599      0.383120      0.181794
  F       2.328069      1.312128     -1.221421
  F       2.034701      1.569617      0.911358
  O      -1.569755     -1.360055      1.357739
  O      -1.909652     -1.652504     -1.068479
  O       1.909869     -1.653358     -1.066488
  O       1.569281     -1.358614      1.359362
  N       0.000048     -0.172776     -0.296576
  C      -2.403509      0.696281     -0.034140
  C       2.403564      0.696389     -0.034198
15
Coordinates from ORCA-job TFS E -1827.361203244328
  S      -1.406414     -0.884611      0.010806
  S       1.406240     -0.884163      0.013360
  F      -2.297545      1.325095     -1.221632
  F      -3.672893      0.441050      0.205352
  F      -1.961387      1.576506      0.906396
  F       3.672836      0.441522      0.206133
  F       2.298656      1.322230     -1.224046
  F       1.961091      1.579152      0.903086
  O      -1.579315     -1.381306      1.351537
  O      -1.963043     -1.665758     -1.065453
  O       1.963465     -1.668151     -1.060533
  O       1.578138     -1.377482      1.355464
  N       0.000112     -0.253226     -0.316721
  C      -2.376165      0.714443     -0.031424
  C       2.376325      0.714598     -0.032225
15
Coordinates from ORCA-job TFS E -1827.361492141416
  S      -1.417552     -0.904974     -0.000940
  S       1.417073     -0.903969      0.004271
  F      -2.267613      1.327978     -1.221115
  F      -3.633424      0.499795      0.248409
  F      -1.863506      1.577274      0.895058
  F       3.633363      0.500906      0.248632
  F       2.269910      1.321720     -1.227198
  F       1.863241      1.582989      0.887025
  O      -1.571808     -1.395953      1.344662
  O      -2.022133     -1.669346     -1.063629
  O       2.022720     -1.674744     -1.053198
  O       1.569184     -1.387375      1.352855
  N       0.000216     -0.327570     -0.360892
  C      -2.335699      0.726413     -0.025580
  C       2.336129      0.726755     -0.028259
15
Coordinates from ORCA-job TFS E -1827.362037970956
  S      -1.434501     -0.943479     -0.019931
  S       1.432752     -0.940522     -0.006525
  F      -2.173661      1.337473     -1.215578
  F      -3.536508      0.616896      0.311892
  F      -1.667104      1.560790      0.881132
  F       3.536423      0.620424      0.309768
  F       2.181018      1.320771     -1.233606
  F       1.666850      1.576569      0.857572
  O      -1.560724     -1.423208      1.333204
  O      -2.133529     -1.660692     -1.057088
  O       2.134928     -1.675341     -1.029190
  O       1.552008     -1.399311      1.354481
  N       0.000643     -0.482935     -0.447261
  C      -2.238368      0.745590     -0.014859
  C       2.239871      0.746877     -0.023911
15
Coordinates from ORCA-job TFS E -1827.362527189365
  S      -1.445274     -0.971808     -0.030829
  S       1.441773     -0.966451     -0.008095
  F      -2.072727      1.344315     -1.208718
  F      -3.443479      0.712719      0.350049
  F      -1.505111      1.532741      0.875607
  F       3.442927      0.719776      0.344876
  F       2.088617      1.315048     -1.242177
  F       1.503666      1.561320      0.831389
  O      -1.565429     -1.446217      1.324811
  O      -2.208716     -1.636412     -1.056644
  O       2.212007     -1.662006     -1.008100
  O       1.547644     -1.403887      1.361107
  N       0.001304     -0.615142     -0.502832
  C      -2.147652      0.756556     -0.006349
  C       2.150551      0.759349     -0.023995
15
Coordinates from ORCA-job TFS E -1827.363097374078
  S      -1.447816     -0.984737     -0.041801
  S       1.439907     -0.972500      0.001528
  F      -1.986838      1.355005     -1.184465
  F      -3.387475      0.760380      0.359569
  F      -1.422459      1.490198      0.905366
  F       3.384930      0.776512      0.348596
  F       2.027769      1.293375     -1.260608
  F       1.414901      1.553579      0.803584
  O      -1.569648     -1.461190      1.312172
  O      -2.246721     -1.594794     -1.071790
  O       2.253527     -1.646443     -0.975990
  O       1.530966     -1.372442      1.382446
  N       0.002717     -0.709168     -0.554442
  C      -2.088703      0.752427      0.008734
  C       2.095043      0.759699     -0.032798
15
Coordinates from ORCA-job TFS E -1827.363599234936
  S      -1.443996     -0.985648     -0.065176
  S       1.426462     -0.957439      0.017195
  F      -1.971138      1.388723     -1.133462
  F      -3.400664      0.731379      0.357246
  F      -1.454334      1.452535      0.973315
  F       3.396307      0.764796      0.333536
  F       2.059038      1.263182     -1.297425
  F       1.438792      1.588398      0.756267
  O      -1.555611     -1.489645      1.278673
  O      -2.251680     -1.569496     -1.102621
  O       2.258926     -1.670040     -0.915175
  O       1.479020     -1.305849      1.413079
  N       0.004776     -0.713145     -0.594602
  C      -2.093750      0.742411      0.035005
  C       2.107953      0.759739     -0.055755
15
Coordinates from ORCA-job TFS E -1827.364728735290
  S      -1.441579     -1.020037     -0.150795
  S       1.382462     -0.932053      0.059859
  F      -1.849703      1.480191     -0.968128
  F      -3.322342      0.732282      0.438817
  F      -1.351910      1.307023      1.138889
  F       3.310584      0.833186      0.369067
  F       2.124668      1.155262     -1.418294
  F       1.324214      1.690728      0.527255
  O      -1.555866     -1.622452      1.148942
  O      -2.307095     -1.464357     -1.210036
  O       2.311538     -1.725030     -0.700481
  O       1.310793     -1.116603      1.483610
  N       0.014701     -0.822005     -0.715099
  C      -2.011016      0.721581      0.127391
  C       2.060651      0.782184     -0.130898
15
Coordinates from ORCA-job TFS E -1827.365000821466
  S      -1.451992     -1.044878     -0.280896
  S       1.308321     -0.827654      0.152459
  F      -1.724637      1.596905     -0.608237
  F      -3.316411      0.644197      0.522327
  F      -1.387644      0.997506      1.452091
  F       3.288187      0.892816      0.353277
  F       2.350323      0.902284     -1.604929
  F       1.361590      1.855448      0.074309
  O      -1.633383     -1.855393      0.889485
  O      -2.302909     -1.257620     -1.420918
  O       2.273194     -1.786858     -0.317573
  O       1.080257     -0.715790      1.565752
  N       0.033388     -0.845973     -0.791519
  C      -1.985781      0.645249      0.303128
  C       2.107597      0.799662     -0.288657
15
Coordinates from ORCA-job TFS E -1827.365840853982
  S      -1.450851     -1.029682     -0.236914
  S       1.356501     -0.884437      0.134218
  F      -1.779521      1.584875     -0.726342
  F      -3.338340      0.678591      0.483361
  F      -1.405722      1.125926      1.360527
  F       3.299762      0.881066      0.342827
  F       2.260582      0.986275     -1.560607
  F       1.336233      1.797419      0.225407
  O      -1.620235     -1.793651      0.968320
  O      -2.283983     -1.328963     -1.371691
  O       2.311050     -1.789920     -0.451830
  O       1.199803     -0.879863      1.563484
  N       0.034609     -0.832808     -0.734879
  C      -2.012019      0.690793      0.247890
  C       2.092232      0.794277     -0.243670
15
Coordinates from ORCA-job TFS E -1827.366125178270
  S      -1.452707     -1.033466     -0.254366
  S       1.356919     -0.892395      0.158935
  F      -1.697083      1.590706     -0.693323
  F      -3.280234      0.722646      0.510456
  F      -1.327009      1.081197      1.380878
  F       3.232042      0.950728      0.339044
  F       2.218023      0.949628     -1.579262
  F       1.234892      1.777228      0.167433
  O      -1.670276     -1.832311      0.921460
  O      -2.264972     -1.266874     -1.418605
  O       2.340097     -1.781618     -0.402803
  O       1.182881     -0.853595      1.586936
  N       0.045576     -0.895370     -0.723953
  C      -1.956234      0.689748      0.267188
  C       2.038185      0.793649     -0.259919
15
Coordinates from ORCA-job TFS E -1827.366294752710
  S      -1.448397     -1.015742     -0.297493
  S       1.334039     -0.861595      0.179654
  F      -1.843129      1.604048     -0.639725
  F      -3.292962      0.631154      0.649501
  F      -1.296627      1.060544      1.385221
  F       3.239243      0.951099      0.386349
  F       2.369829      0.851371     -1.598923
  F       1.279493      1.804310      0.013169
  O      -1.647684     -1.879785      0.835743
  O      -2.252927     -1.208965     -1.474794
  O       2.291655     -1.816424     -0.315069
  O       1.117575     -0.757844      1.599688
  N       0.050868     -0.814173     -0.744710
  C      -1.990458      0.670139      0.312292
  C       2.089582      0.781763     -0.290805
15
Coordinates from ORCA-job TFS E -1827.366338288996
  S      -1.449667     -1.019716     -0.284891
  S       1.341735     -0.867389      0.173425
  F      -1.817568      1.598153     -0.658633
  F      -3.299803      0.648135      0.610940
  F      -1.316754      1.068052      1.383369
  F       3.249955      0.944928      0.371924
  F       2.337350      0.877514     -1.594788
  F       1.280935      1.800899      0.058412
  O      -1.650771     -1.864480      0.862326
  O      -2.257588     -1.226861     -1.457369
  O       2.298295     -1.811261     -0.343391
  O       1.141710     -0.785551      1.596899
  N       0.047870     -0.820533     -0.734693
  C      -1.990667      0.673632      0.298646
  C       2.085067      0.784378     -0.282074
15
Coordinates from ORCA-job TFS E -1827.366343342243
  S      -1.449600     -1.019561     -0.288682
  S       1.340603     -0.864216      0.177655
  F      -1.812367      1.600267     -0.648830
  F      -3.300626      0.646128      0.610593
  F      -1.319858      1.058237      1.392314
  F       3.252165      0.946315      0.364227
  F       2.335720      0.870409     -1.600177
  F       1.283747      1.803513      0.051224
  O      -1.653877     -1.870477      0.853423
  O      -2.255205     -1.218769     -1.464086
  O       2.297600     -1.812513     -0.330124
  O       1.137729     -0.773964      1.600104
  N       0.048799     -0.820144     -0.733866
  C      -1.990285      0.670640      0.302883
  C       2.085555      0.784035     -0.286559
15
Coordinates from ORCA-job TFS E -1827.366345359863
  S      -1.448718     -1.017891     -0.290263
  S       1.340277     -0.862660      0.179319
  F      -1.818586      1.600558     -0.646342
  F      -3.303454      0.641705      0.613534
  F      -1.322946      1.057532      1.393721
  F       3.255378      0.944756      0.361977
  F       2.338140      0.865927     -1.601867
  F       1.288201      1.804209      0.048146
  O      -1.651737     -1.872087      0.849647
  O      -2.252856     -1.215433     -1.466892
  O       2.295057     -1.814674     -0.325571
  O       1.137211     -0.769934      1.601510
  N       0.049339     -0.814102     -0.733277
  C      -1.993374      0.669239      0.304511
  C       2.088166      0.782755     -0.288052
15
Coordinates from ORCA-job TFS E -1827.366345545394
  S      -1.448546     -1.017381     -0.290546
  S       1.340246     -0.861935      0.179621
  F      -1.819697      1.600994     -0.644624
  F      -3.305104      0.640161      0.613213
  F      -1.325544      1.056765      1.395451
  F       3.256557      0.944166      0.361523
  F       2.340008      0.864391     -1.602665
  F       1.290107      1.804689      0.046091
  O      -1.650789     -1.872704      0.848651
  O      -2.252422     -1.214635     -1.467402
  O       2.294001     -1.815515     -0.324271
  O       1.137107     -0.768389      1.601735
  N       0.049433     -0.811894     -0.733143
  C      -1.994771      0.668740      0.305369
  C       2.089513      0.782448     -0.288903
15
Coordinates from ORCA-job TFS E -1827.366345534392
  S      -1.448532     -1.017328     -0.290491
  S       1.340230     -0.861755      0.179620
  F      -1.820077      1.600924     -0.644614
  F      -3.305418      0.639808      0.613098
  F      -1.326006      1.056861      1.395503
  F       3.257025      0.943720      0.361290
  F       2.340095      0.864447     -1.602742
  F       1.290753      1.804801      0.046296
  O      -1.650641     -1.872757      0.848643
  O      -2.252349     -1.214648     -1.467371
  O       2.293751     -1.815585     -0.324242
  O       1.137115     -0.768133      1.601744
  N       0.049409     -0.811523     -0.733066
  C      -1.995083      0.668653      0.305392
  C       2.089831      0.782415     -0.288958
