  124
jmolscript: load "" {1 1 1} spacegroup "x,y,z" unitcell [{     15.944269    -0.557309     0.089627 }, {     -6.536530    14.656358    -0.056490 }, {     -4.634704    -7.066548    13.094851 }]
Ti     -2.867403     2.187770    11.221896    76.729855
Ti      7.844002     5.085871     1.860054    76.957314
Ti      1.220926    -1.693334     9.343435    79.412334
Ti      2.698284     7.476359     3.688558    79.537508
Ti      1.735705     9.118590     1.758937    77.296249
Ti      3.038108    -1.996863    11.330750    77.408223
Ti     -1.953480     0.485202     9.301469    79.419790
Ti      5.923190     5.404640     3.752955    80.183422
H       3.691482     1.616615     8.689118    10.953423
H      -6.751976    10.398311     6.450504    10.498506
H       4.689791    10.806648     4.640937    10.972450
H      -2.157332     6.121539    11.015901    10.367328
H       8.528785     1.154150     2.163694    10.869549
H      -6.782248     1.326165    10.869319    11.017342
H      11.215179     7.226437     2.061895    10.266117
H       4.301663    -6.036707    10.977659    11.283314
H      -2.400001     8.702942     2.054412    10.720884
H       4.660687     3.094027     6.906283    11.107294
H      -0.060472     3.698136     8.377525    10.653878
H      12.224338    -2.321246     6.420848    10.708695
H      -2.439930     0.396244    12.978356     7.110253
H       5.995988     4.814195     0.130110     6.894176
H       3.762926    -2.432245     5.833357    10.269669
H       0.990135     9.350637     7.271687    10.602597
H      -5.862585     4.097866     8.968681    10.674891
H      10.662366     3.001921     4.161342    10.281294
H      -3.693188     2.432045     5.645465    10.374109
H      -1.227182    11.208395     4.085660    10.686034
H       1.923291    12.217146     2.562955     9.359800
H       8.328016    -0.862743     3.355990     7.326008
H       4.811827     7.170298     2.386030     7.774436
H       0.170574     0.183839    10.589151     8.159533
H       7.377855    -0.232941     9.777625     7.164624
H       5.868379    -0.686002    10.520121     9.602057
H       8.097155     4.774346     8.640680     6.733882
H       7.466622     5.028597     7.027240     8.676597
H       6.851139    -4.959127     9.558425     7.026227
H       5.553813    -3.874888    10.017097     9.513499
H       1.343458     1.945412     9.411441    12.152138
H       0.905470     5.178184     6.592933    10.420163
H       5.956672     8.819566     3.880566    12.661828
H       8.188455     8.309420     4.825001    10.651723
C       8.525852     4.427309     4.711905    62.321291
C      -3.795218     2.551568     8.382030    62.180359
C       3.833667    -2.648277     8.469425    62.125946
C       0.840507     9.542599     4.604752    61.985177
C       9.444383     3.859521     5.705585    82.825204
C      -4.695593     3.211439     7.403674    76.813699
C       4.796463    -3.235371     7.532569    82.776235
C      -0.028918    10.219481     5.598404    76.964498
C       9.250930     4.018521     7.114642    70.953909
C      -4.516876     3.039785     6.014889    88.829750
C       5.894112    -4.040860     7.990189    70.641155
C      -1.081534    11.051015     5.152660    88.670862
C       0.175768    10.004800     6.957011    90.946030
C       4.608614    -3.044387     6.146296    85.519108
C      10.543852     3.101893     5.239937    85.333819
C      -5.751837     3.979355     7.890307    90.960961
C       2.842171     4.225645     6.650190    79.145038
C       1.762379     2.579172     8.630927    86.306571
C       6.381483     9.471423     4.643295    86.827518
C      -1.910374    -2.923578     6.522190    78.709815
C       8.729709     1.224884     0.034402    76.337708
C       2.260488    13.075427     0.054711    82.113976
C       6.548752    -0.063299    13.020271    82.204137
C      -6.789781     1.529370    13.001303    76.200818
C       3.421155     5.109044     5.611861    60.663563
C      -1.307293    -2.009889     7.519949    60.361887
C       3.951796    -4.366201    13.106672    60.280559
C       2.197513    11.625349     0.010890    59.954597
C       5.233739    -0.678636    13.065472    59.986400
C      -5.378912     1.981500    13.032666    60.058000
C       1.506572     4.397017     7.058175    84.769545
C       3.088651     2.397797     8.224529    85.552551
C       5.669888    10.597376     5.071047    85.686070
C      -7.740012    10.594931     6.035585    84.903000
C       8.648416     0.563315     1.254515    90.160221
C      -2.256801     6.712191    11.925751    85.482634
C      -4.153248     7.931482     1.059891    85.193840
C      -7.368605     1.199433    11.780804    90.884377
C       7.644669     9.188372     5.173311    85.581905
C      12.759358    -3.208208     6.082096    85.780609
C       3.629238     3.217306     7.236300    86.286458
C       0.971149     3.573906     8.046516    85.329680
C       7.269289     0.117984    11.793071    70.543089
C      -2.873978     8.439239     1.111349    88.081218
C       4.244204    -6.567768    11.926095    89.163883
C       8.674172    -0.844001     1.336749    70.017247
N       8.578031    -1.433697     2.560324    82.293100
N       6.751664    -0.189843    10.569446    83.131588
N       8.223460     4.743705     7.639074    81.876132
N       6.168508    -4.258521     9.305961    83.273517
O       7.360491     4.858834     5.093478    77.268304
O      -3.026103     1.598811     7.977551    75.965306
O       4.164252    -2.583849     9.708287    78.061139
O       0.775796     9.938804     3.395250    75.997528
O       1.596832     8.574529     4.997003    76.122736
O       2.682038    -2.241895     8.045964    75.565652
O       8.888355     4.449638     3.486911    75.121961
O      -3.854108     2.940578     9.594540    75.410850
O       6.209187     4.174467     2.555372    92.256105
O      -1.373198     2.021488    10.131135    96.657144
O       7.141931     6.467310     2.907474    95.346749
O      -3.154877     0.328288    10.550098    92.532037
O       1.458971    -2.899306    10.589487    91.890952
O       3.249529     9.007224     2.860314    95.927326
O       2.401538    -0.617576    10.257018    95.848204
O       1.495844     7.286882     2.433551    91.719128
O       4.635481     4.918628     5.251497    76.620034
O      -1.985693    -1.000366     7.920029    75.794177
O       3.853927    -3.790105    11.970139    76.270609
O       2.119272    10.953943     1.108516    75.514078
O       4.629281    -0.984747    11.969805    75.737992
O      -0.184311     9.166495     1.079237    75.252020
O      -0.126437    -2.263317     7.945708    75.523262
O       2.689853     6.033272     5.115307    75.615848
O       9.323951     6.134823     1.108545    74.335037
O      -4.792773     2.208748    11.923445    76.288591
O       8.548272     3.316365     1.127900    76.031668
O      -2.438056     3.955227    11.968681    74.504466
O       4.443120     6.617379     3.098095    98.560471
O      -0.224845    -0.387541     9.906779    99.415217
O       6.843399     5.290150     0.062991    94.382793
O      -2.331538     1.362972    13.028122    94.480213
  
Same information as above printed with atom number.
   1 Ti    -2.867403     2.187770    11.221896    76.729855
   2 Ti     7.844002     5.085871     1.860054    76.957314
   3 Ti     1.220926    -1.693334     9.343435    79.412334
   4 Ti     2.698284     7.476359     3.688558    79.537508
   5 Ti     1.735705     9.118590     1.758937    77.296249
   6 Ti     3.038108    -1.996863    11.330750    77.408223
   7 Ti    -1.953480     0.485202     9.301469    79.419790
   8 Ti     5.923190     5.404640     3.752955    80.183422
   9 H      3.691482     1.616615     8.689118    10.953423
  10 H     -6.751976    10.398311     6.450504    10.498506
  11 H      4.689791    10.806648     4.640937    10.972450
  12 H     -2.157332     6.121539    11.015901    10.367328
  13 H      8.528785     1.154150     2.163694    10.869549
  14 H     -6.782248     1.326165    10.869319    11.017342
  15 H     11.215179     7.226437     2.061895    10.266117
  16 H      4.301663    -6.036707    10.977659    11.283314
  17 H     -2.400001     8.702942     2.054412    10.720884
  18 H      4.660687     3.094027     6.906283    11.107294
  19 H     -0.060472     3.698136     8.377525    10.653878
  20 H     12.224338    -2.321246     6.420848    10.708695
  21 H     -2.439930     0.396244    12.978356     7.110253
  22 H      5.995988     4.814195     0.130110     6.894176
  23 H      3.762926    -2.432245     5.833357    10.269669
  24 H      0.990135     9.350637     7.271687    10.602597
  25 H     -5.862585     4.097866     8.968681    10.674891
  26 H     10.662366     3.001921     4.161342    10.281294
  27 H     -3.693188     2.432045     5.645465    10.374109
  28 H     -1.227182    11.208395     4.085660    10.686034
  29 H      1.923291    12.217146     2.562955     9.359800
  30 H      8.328016    -0.862743     3.355990     7.326008
  31 H      4.811827     7.170298     2.386030     7.774436
  32 H      0.170574     0.183839    10.589151     8.159533
  33 H      7.377855    -0.232941     9.777625     7.164624
  34 H      5.868379    -0.686002    10.520121     9.602057
  35 H      8.097155     4.774346     8.640680     6.733882
  36 H      7.466622     5.028597     7.027240     8.676597
  37 H      6.851139    -4.959127     9.558425     7.026227
  38 H      5.553813    -3.874888    10.017097     9.513499
  39 H      1.343458     1.945412     9.411441    12.152138
  40 H      0.905470     5.178184     6.592933    10.420163
  41 H      5.956672     8.819566     3.880566    12.661828
  42 H      8.188455     8.309420     4.825001    10.651723
  43 C      8.525852     4.427309     4.711905    62.321291
  44 C     -3.795218     2.551568     8.382030    62.180359
  45 C      3.833667    -2.648277     8.469425    62.125946
  46 C      0.840507     9.542599     4.604752    61.985177
  47 C      9.444383     3.859521     5.705585    82.825204
  48 C     -4.695593     3.211439     7.403674    76.813699
  49 C      4.796463    -3.235371     7.532569    82.776235
  50 C     -0.028918    10.219481     5.598404    76.964498
  51 C      9.250930     4.018521     7.114642    70.953909
  52 C     -4.516876     3.039785     6.014889    88.829750
  53 C      5.894112    -4.040860     7.990189    70.641155
  54 C     -1.081534    11.051015     5.152660    88.670862
  55 C      0.175768    10.004800     6.957011    90.946030
  56 C      4.608614    -3.044387     6.146296    85.519108
  57 C     10.543852     3.101893     5.239937    85.333819
  58 C     -5.751837     3.979355     7.890307    90.960961
  59 C      2.842171     4.225645     6.650190    79.145038
  60 C      1.762379     2.579172     8.630927    86.306571
  61 C      6.381483     9.471423     4.643295    86.827518
  62 C     -1.910374    -2.923578     6.522190    78.709815
  63 C      8.729709     1.224884     0.034402    76.337708
  64 C      2.260488    13.075427     0.054711    82.113976
  65 C      6.548752    -0.063299    13.020271    82.204137
  66 C     -6.789781     1.529370    13.001303    76.200818
  67 C      3.421155     5.109044     5.611861    60.663563
  68 C     -1.307293    -2.009889     7.519949    60.361887
  69 C      3.951796    -4.366201    13.106672    60.280559
  70 C      2.197513    11.625349     0.010890    59.954597
  71 C      5.233739    -0.678636    13.065472    59.986400
  72 C     -5.378912     1.981500    13.032666    60.058000
  73 C      1.506572     4.397017     7.058175    84.769545
  74 C      3.088651     2.397797     8.224529    85.552551
  75 C      5.669888    10.597376     5.071047    85.686070
  76 C     -7.740012    10.594931     6.035585    84.903000
  77 C      8.648416     0.563315     1.254515    90.160221
  78 C     -2.256801     6.712191    11.925751    85.482634
  79 C     -4.153248     7.931482     1.059891    85.193840
  80 C     -7.368605     1.199433    11.780804    90.884377
  81 C      7.644669     9.188372     5.173311    85.581905
  82 C     12.759358    -3.208208     6.082096    85.780609
  83 C      3.629238     3.217306     7.236300    86.286458
  84 C      0.971149     3.573906     8.046516    85.329680
  85 C      7.269289     0.117984    11.793071    70.543089
  86 C     -2.873978     8.439239     1.111349    88.081218
  87 C      4.244204    -6.567768    11.926095    89.163883
  88 C      8.674172    -0.844001     1.336749    70.017247
  89 N      8.578031    -1.433697     2.560324    82.293100
  90 N      6.751664    -0.189843    10.569446    83.131588
  91 N      8.223460     4.743705     7.639074    81.876132
  92 N      6.168508    -4.258521     9.305961    83.273517
  93 O      7.360491     4.858834     5.093478    77.268304
  94 O     -3.026103     1.598811     7.977551    75.965306
  95 O      4.164252    -2.583849     9.708287    78.061139
  96 O      0.775796     9.938804     3.395250    75.997528
  97 O      1.596832     8.574529     4.997003    76.122736
  98 O      2.682038    -2.241895     8.045964    75.565652
  99 O      8.888355     4.449638     3.486911    75.121961
 100 O     -3.854108     2.940578     9.594540    75.410850
 101 O      6.209187     4.174467     2.555372    92.256105
 102 O     -1.373198     2.021488    10.131135    96.657144
 103 O      7.141931     6.467310     2.907474    95.346749
 104 O     -3.154877     0.328288    10.550098    92.532037
 105 O      1.458971    -2.899306    10.589487    91.890952
 106 O      3.249529     9.007224     2.860314    95.927326
 107 O      2.401538    -0.617576    10.257018    95.848204
 108 O      1.495844     7.286882     2.433551    91.719128
 109 O      4.635481     4.918628     5.251497    76.620034
 110 O     -1.985693    -1.000366     7.920029    75.794177
 111 O      3.853927    -3.790105    11.970139    76.270609
 112 O      2.119272    10.953943     1.108516    75.514078
 113 O      4.629281    -0.984747    11.969805    75.737992
 114 O     -0.184311     9.166495     1.079237    75.252020
 115 O     -0.126437    -2.263317     7.945708    75.523262
 116 O      2.689853     6.033272     5.115307    75.615848
 117 O      9.323951     6.134823     1.108545    74.335037
 118 O     -4.792773     2.208748    11.923445    76.288591
 119 O      8.548272     3.316365     1.127900    76.031668
 120 O     -2.438056     3.955227    11.968681    74.504466
 121 O      4.443120     6.617379     3.098095    98.560471
 122 O     -0.224845    -0.387541     9.906779    99.415217
 123 O      6.843399     5.290150     0.062991    94.382793
 124 O     -2.331538     1.362972    13.028122    94.480213
