  124
jmolscript: load "" {1 1 1} spacegroup "x,y,z" unitcell [{     15.944269    -0.557309     0.089627 }, {     -6.536530    14.656358    -0.056490 }, {     -4.634704    -7.066548    13.094851 }]
Ti     -2.867403     2.187770    11.221896    33.412986
Ti      7.844002     5.085871     1.860054    33.492231
Ti      1.220926    -1.693334     9.343435    33.844321
Ti      2.698284     7.476359     3.688558    33.874997
Ti      1.735705     9.118590     1.758937    33.577651
Ti      3.038108    -1.996863    11.330750    33.575635
Ti     -1.953480     0.485202     9.301469    33.827539
Ti      5.923190     5.404640     3.752955    34.024376
H       3.691482     1.616615     8.689118     3.885947
H      -6.751976    10.398311     6.450504     3.805782
H       4.689791    10.806648     4.640937     3.884805
H      -2.157332     6.121539    11.015901     3.756742
H       8.528785     1.154150     2.163694     3.860886
H      -6.782248     1.326165    10.869319     3.896028
H      11.215179     7.226437     2.061895     3.729975
H       4.301663    -6.036707    10.977659     4.028611
H      -2.400001     8.702942     2.054412     3.844898
H       4.660687     3.094027     6.906283     3.957466
H      -0.060472     3.698136     8.377525     3.807757
H      12.224338    -2.321246     6.420848     3.841808
H      -2.439930     0.396244    12.978356     2.435913
H       5.995988     4.814195     0.130110     2.386162
H       3.762926    -2.432245     5.833357     3.745966
H       0.990135     9.350637     7.271687     3.831483
H      -5.862585     4.097866     8.968681     3.809929
H      10.662366     3.001921     4.161342     3.726183
H      -3.693188     2.432045     5.645465     3.788138
H      -1.227182    11.208395     4.085660     3.844942
H       1.923291    12.217146     2.562955     3.224389
H       8.328016    -0.862743     3.355990     2.707277
H       4.811827     7.170298     2.386030     2.609841
H       0.170574     0.183839    10.589151     2.705317
H       7.377855    -0.232941     9.777625     2.670851
H       5.868379    -0.686002    10.520121     3.272758
H       8.097155     4.774346     8.640680     2.580699
H       7.466622     5.028597     7.027240     3.048012
H       6.851139    -4.959127     9.558425     2.638643
H       5.553813    -3.874888    10.017097     3.224654
H       1.343458     1.945412     9.411441     4.167388
H       0.905470     5.178184     6.592933     3.793591
H       5.956672     8.819566     3.880566     4.316969
H       8.188455     8.309420     4.825001     3.812860
C       8.525852     4.427309     4.711905    22.148106
C      -3.795218     2.551568     8.382030    22.100855
C       3.833667    -2.648277     8.469425    22.092505
C       0.840507     9.542599     4.604752    22.056950
C       9.444383     3.859521     5.705585    29.119753
C      -4.695593     3.211439     7.403674    27.398514
C       4.796463    -3.235371     7.532569    29.110109
C      -0.028918    10.219481     5.598404    27.447044
C       9.250930     4.018521     7.114642    25.157295
C      -4.516876     3.039785     6.014889    30.714959
C       5.894112    -4.040860     7.990189    25.092428
C      -1.081534    11.051015     5.152660    30.665093
C       0.175768    10.004800     6.957011    31.316692
C       4.608614    -3.044387     6.146296    29.806333
C      10.543852     3.101893     5.239937    29.725540
C      -5.751837     3.979355     7.890307    31.304338
C       2.842171     4.225645     6.650190    28.068917
C       1.762379     2.579172     8.630927    29.612273
C       6.381483     9.471423     4.643295    29.743836
C      -1.910374    -2.923578     6.522190    27.939980
C       8.729709     1.224884     0.034402    27.332012
C       2.260488    13.075427     0.054711    29.028095
C       6.548752    -0.063299    13.020271    29.036782
C      -6.789781     1.529370    13.001303    27.272247
C       3.421155     5.109044     5.611861    21.702192
C      -1.307293    -2.009889     7.519949    21.617387
C       3.951796    -4.366201    13.106672    21.664918
C       2.197513    11.625349     0.010890    21.547368
C       5.233739    -0.678636    13.065472    21.557290
C      -5.378912     1.981500    13.032666    21.577854
C       1.506572     4.397017     7.058175    29.560216
C       3.088651     2.397797     8.224529    29.700949
C       5.669888    10.597376     5.071047    29.740098
C      -7.740012    10.594931     6.035585    29.569226
C       8.648416     0.563315     1.254515    31.108212
C      -2.256801     6.712191    11.925751    29.764483
C      -4.153248     7.931482     1.059891    29.678845
C      -7.368605     1.199433    11.780804    31.271962
C       7.644669     9.188372     5.173311    29.732562
C      12.759358    -3.208208     6.082096    29.789741
C       3.629238     3.217306     7.236300    29.868119
C       0.971149     3.573906     8.046516    29.674486
C       7.269289     0.117984    11.793071    25.031571
C      -2.873978     8.439239     1.111349    30.469787
C       4.244204    -6.567768    11.926095    30.743546
C       8.674172    -0.844001     1.336749    24.917594
N       8.578031    -1.433697     2.560324    30.367353
N       6.751664    -0.189843    10.569446    30.575701
N       8.223460     4.743705     7.639074    30.382062
N       6.168508    -4.258521     9.305961    30.640265
O       7.360491     4.858834     5.093478    28.922627
O      -3.026103     1.598811     7.977551    28.712810
O       4.164252    -2.583849     9.708287    28.931535
O       0.775796     9.938804     3.395250    28.507205
O       1.596832     8.574529     4.997003    28.777914
O       2.682038    -2.241895     8.045964    28.676730
O       8.888355     4.449638     3.486911    28.385653
O      -3.854108     2.940578     9.594540    28.435261
O       6.209187     4.174467     2.555372    34.046353
O      -1.373198     2.021488    10.131135    34.900544
O       7.141931     6.467310     2.907474    34.598870
O      -3.154877     0.328288    10.550098    34.090980
O       1.458971    -2.899306    10.589487    33.979825
O       3.249529     9.007224     2.860314    34.770108
O       2.401538    -0.617576    10.257018    34.754780
O       1.495844     7.286882     2.433551    33.911905
O       4.635481     4.918628     5.251497    28.870855
O      -1.985693    -1.000366     7.920029    28.665641
O       3.853927    -3.790105    11.970139    28.748780
O       2.119272    10.953943     1.108516    28.416527
O       4.629281    -0.984747    11.969805    28.474931
O      -0.184311     9.166495     1.079237    28.505623
O      -0.126437    -2.263317     7.945708    28.608094
O       2.689853     6.033272     5.115307    28.601585
O       9.323951     6.134823     1.108545    28.301561
O      -4.792773     2.208748    11.923445    28.752873
O       8.548272     3.316365     1.127900    28.690370
O      -2.438056     3.955227    11.968681    28.334719
O       4.443120     6.617379     3.098095    35.294438
O      -0.224845    -0.387541     9.906779    35.484654
O       6.843399     5.290150     0.062991    34.415765
O      -2.331538     1.362972    13.028122    34.427859
  
Same information as above printed with atom number.
   1 Ti    -2.867403     2.187770    11.221896    33.412986
   2 Ti     7.844002     5.085871     1.860054    33.492231
   3 Ti     1.220926    -1.693334     9.343435    33.844321
   4 Ti     2.698284     7.476359     3.688558    33.874997
   5 Ti     1.735705     9.118590     1.758937    33.577651
   6 Ti     3.038108    -1.996863    11.330750    33.575635
   7 Ti    -1.953480     0.485202     9.301469    33.827539
   8 Ti     5.923190     5.404640     3.752955    34.024376
   9 H      3.691482     1.616615     8.689118     3.885947
  10 H     -6.751976    10.398311     6.450504     3.805782
  11 H      4.689791    10.806648     4.640937     3.884805
  12 H     -2.157332     6.121539    11.015901     3.756742
  13 H      8.528785     1.154150     2.163694     3.860886
  14 H     -6.782248     1.326165    10.869319     3.896028
  15 H     11.215179     7.226437     2.061895     3.729975
  16 H      4.301663    -6.036707    10.977659     4.028611
  17 H     -2.400001     8.702942     2.054412     3.844898
  18 H      4.660687     3.094027     6.906283     3.957466
  19 H     -0.060472     3.698136     8.377525     3.807757
  20 H     12.224338    -2.321246     6.420848     3.841808
  21 H     -2.439930     0.396244    12.978356     2.435913
  22 H      5.995988     4.814195     0.130110     2.386162
  23 H      3.762926    -2.432245     5.833357     3.745966
  24 H      0.990135     9.350637     7.271687     3.831483
  25 H     -5.862585     4.097866     8.968681     3.809929
  26 H     10.662366     3.001921     4.161342     3.726183
  27 H     -3.693188     2.432045     5.645465     3.788138
  28 H     -1.227182    11.208395     4.085660     3.844942
  29 H      1.923291    12.217146     2.562955     3.224389
  30 H      8.328016    -0.862743     3.355990     2.707277
  31 H      4.811827     7.170298     2.386030     2.609841
  32 H      0.170574     0.183839    10.589151     2.705317
  33 H      7.377855    -0.232941     9.777625     2.670851
  34 H      5.868379    -0.686002    10.520121     3.272758
  35 H      8.097155     4.774346     8.640680     2.580699
  36 H      7.466622     5.028597     7.027240     3.048012
  37 H      6.851139    -4.959127     9.558425     2.638643
  38 H      5.553813    -3.874888    10.017097     3.224654
  39 H      1.343458     1.945412     9.411441     4.167388
  40 H      0.905470     5.178184     6.592933     3.793591
  41 H      5.956672     8.819566     3.880566     4.316969
  42 H      8.188455     8.309420     4.825001     3.812860
  43 C      8.525852     4.427309     4.711905    22.148106
  44 C     -3.795218     2.551568     8.382030    22.100855
  45 C      3.833667    -2.648277     8.469425    22.092505
  46 C      0.840507     9.542599     4.604752    22.056950
  47 C      9.444383     3.859521     5.705585    29.119753
  48 C     -4.695593     3.211439     7.403674    27.398514
  49 C      4.796463    -3.235371     7.532569    29.110109
  50 C     -0.028918    10.219481     5.598404    27.447044
  51 C      9.250930     4.018521     7.114642    25.157295
  52 C     -4.516876     3.039785     6.014889    30.714959
  53 C      5.894112    -4.040860     7.990189    25.092428
  54 C     -1.081534    11.051015     5.152660    30.665093
  55 C      0.175768    10.004800     6.957011    31.316692
  56 C      4.608614    -3.044387     6.146296    29.806333
  57 C     10.543852     3.101893     5.239937    29.725540
  58 C     -5.751837     3.979355     7.890307    31.304338
  59 C      2.842171     4.225645     6.650190    28.068917
  60 C      1.762379     2.579172     8.630927    29.612273
  61 C      6.381483     9.471423     4.643295    29.743836
  62 C     -1.910374    -2.923578     6.522190    27.939980
  63 C      8.729709     1.224884     0.034402    27.332012
  64 C      2.260488    13.075427     0.054711    29.028095
  65 C      6.548752    -0.063299    13.020271    29.036782
  66 C     -6.789781     1.529370    13.001303    27.272247
  67 C      3.421155     5.109044     5.611861    21.702192
  68 C     -1.307293    -2.009889     7.519949    21.617387
  69 C      3.951796    -4.366201    13.106672    21.664918
  70 C      2.197513    11.625349     0.010890    21.547368
  71 C      5.233739    -0.678636    13.065472    21.557290
  72 C     -5.378912     1.981500    13.032666    21.577854
  73 C      1.506572     4.397017     7.058175    29.560216
  74 C      3.088651     2.397797     8.224529    29.700949
  75 C      5.669888    10.597376     5.071047    29.740098
  76 C     -7.740012    10.594931     6.035585    29.569226
  77 C      8.648416     0.563315     1.254515    31.108212
  78 C     -2.256801     6.712191    11.925751    29.764483
  79 C     -4.153248     7.931482     1.059891    29.678845
  80 C     -7.368605     1.199433    11.780804    31.271962
  81 C      7.644669     9.188372     5.173311    29.732562
  82 C     12.759358    -3.208208     6.082096    29.789741
  83 C      3.629238     3.217306     7.236300    29.868119
  84 C      0.971149     3.573906     8.046516    29.674486
  85 C      7.269289     0.117984    11.793071    25.031571
  86 C     -2.873978     8.439239     1.111349    30.469787
  87 C      4.244204    -6.567768    11.926095    30.743546
  88 C      8.674172    -0.844001     1.336749    24.917594
  89 N      8.578031    -1.433697     2.560324    30.367353
  90 N      6.751664    -0.189843    10.569446    30.575701
  91 N      8.223460     4.743705     7.639074    30.382062
  92 N      6.168508    -4.258521     9.305961    30.640265
  93 O      7.360491     4.858834     5.093478    28.922627
  94 O     -3.026103     1.598811     7.977551    28.712810
  95 O      4.164252    -2.583849     9.708287    28.931535
  96 O      0.775796     9.938804     3.395250    28.507205
  97 O      1.596832     8.574529     4.997003    28.777914
  98 O      2.682038    -2.241895     8.045964    28.676730
  99 O      8.888355     4.449638     3.486911    28.385653
 100 O     -3.854108     2.940578     9.594540    28.435261
 101 O      6.209187     4.174467     2.555372    34.046353
 102 O     -1.373198     2.021488    10.131135    34.900544
 103 O      7.141931     6.467310     2.907474    34.598870
 104 O     -3.154877     0.328288    10.550098    34.090980
 105 O      1.458971    -2.899306    10.589487    33.979825
 106 O      3.249529     9.007224     2.860314    34.770108
 107 O      2.401538    -0.617576    10.257018    34.754780
 108 O      1.495844     7.286882     2.433551    33.911905
 109 O      4.635481     4.918628     5.251497    28.870855
 110 O     -1.985693    -1.000366     7.920029    28.665641
 111 O      3.853927    -3.790105    11.970139    28.748780
 112 O      2.119272    10.953943     1.108516    28.416527
 113 O      4.629281    -0.984747    11.969805    28.474931
 114 O     -0.184311     9.166495     1.079237    28.505623
 115 O     -0.126437    -2.263317     7.945708    28.608094
 116 O      2.689853     6.033272     5.115307    28.601585
 117 O      9.323951     6.134823     1.108545    28.301561
 118 O     -4.792773     2.208748    11.923445    28.752873
 119 O      8.548272     3.316365     1.127900    28.690370
 120 O     -2.438056     3.955227    11.968681    28.334719
 121 O      4.443120     6.617379     3.098095    35.294438
 122 O     -0.224845    -0.387541     9.906779    35.484654
 123 O      6.843399     5.290150     0.062991    34.415765
 124 O     -2.331538     1.362972    13.028122    34.427859
