40
Coordinates from ORCA-job complex E -2250.476863032685
  N          -8.66414517855335     -8.93668296441094     -0.62992470437777
  N         -10.62478917933386     -9.83192407293805     -0.38768301161500
  C          -7.31405844650168     -8.65102612150521     -1.15384152025709
  C          -6.22362256716431     -9.35570919727348     -0.35373329174264
  C          -6.30531164850827    -10.88093844387729     -0.38602108816689
  C          -9.54527214369624     -9.77616710368880     -1.16885744723714
  C          -9.19375662749723     -8.44288547741915      0.54104391966733
  C         -10.42286358605267     -9.00013709615625      0.69242172377435
  C          -5.15163884254051    -11.53682449934655      0.36941910650877
  C         -11.82489386436156    -10.63233433458151     -0.63602976003690
  H          -7.30960248238502     -8.97281653520102     -2.19521586717998
  H          -7.18679513107471     -7.56903771262600     -1.13672029868351
  H          -6.23852956419523     -8.99753894434531      0.68015070966453
  H          -5.26887045341355     -9.02736744603610     -0.77323926934732
  H          -7.25498908750394    -11.21454303677028      0.04668397954938
  H          -6.30025023431884    -11.21896459410640     -1.42827953070486
  H          -9.40901055441818    -10.32056345390969     -2.08696843400484
  H          -8.66331335895197     -7.73959002594524      1.15778181177132
  H         -11.16290934587060     -8.87107302965208      1.46210848858688
  H          -5.14498841770197    -11.23439413755852      1.41882913050320
  H          -4.18954292758440    -11.25560423968893     -0.06306533884792
  H          -5.22559981758114    -12.62408954383393      0.33561280308526
  H         -11.69728853106161    -11.18262323620526     -1.56441351252373
  H         -11.97076465321386    -11.33309469837293      0.18384361883304
  H         -12.68897621139944     -9.97600750890940     -0.72090111425227
  O          11.52610309412662      4.70214602648992      2.14223914224576
  F           9.36441471741670      6.84782442434153      1.78664587821841
  O           8.59239057591133      3.96144334477858      1.50240214408106
  F          13.85576065757816      5.95702026821299      0.74994585689696
  F           7.33240264714783      6.66750239681421      1.05048800400639
  S          11.69117842663595      4.44916618289067      0.73484513651573
  C           8.62761222279981      6.47055634764461      0.73787371229848
  F          12.03558475343208      7.06756809089131      0.34852449087244
  C          12.67183624628360      5.91182797396021      0.11388005530152
  O          12.48040731580286      3.31882918948581      0.31915850387807
  S           8.90342321607752      4.67474467694089      0.29144613200984
  N          10.40620642486405      4.60980695350766     -0.17493047154199
  F           8.92474768604980      7.27771437779709     -0.29295390965848
  F          12.91601756507208      5.83142070870633     -1.20108008720842
  O           8.05681861808597      4.50111126939717     -0.85932546228199
